ROMS/TOMS Framework:  November 19, 2014
===================

Copyright (c) 2002-2014 The ROMS/TOMS Group
  Licensed under a MIT/X style license
  See License_ROMS.txt

svn: $HeadURL: https://www.myroms.org/svn/src/trunk/ROMS/Version $
svn: $LastChangedBy: arango $
svn: $LastChangedRevision: 744 $
svn: $LastChangedDate: 2014-11-20 12:57:22 +1300 (Thu, 20 Nov 2014) $