ROMS/TOMS Framework: July 14, 2014
===================

Copyright (c) 2002-2014 The ROMS/TOMS Group
  Licensed under a MIT/X style license
  See License_ROMS.txt

svn: $HeadURL: https://www.myroms.org/svn/src/trunk/ROMS/Version $
svn: $LastChangedBy: arango $
svn: $LastChangedRevision: 737 $
svn: $LastChangedDate: 2014-07-15 07:27:53 +1200 (Tue, 15 Jul 2014) $